FoamFile
{
    version     2.0;
    format      ascii;
    class       dictionary;
    location    "system";
    object      fvSolution;
}

solvers
{
    p
    {
        solver          PCG;
        preconditioner   DIC;
        tolerance        1e-06;
        relTol           0;
    }

    U
    {
        solver          smoothSolver;
        smoother        GaussSeidel;
        tolerance        1e-05;
        relTol           0.1;
    }
}

SIMPLE
{
    nNonOrthogonalCorrectors 0;
}

